<?xml version="1.0" encoding="UTF-8"?>
<routes>
    <vType id="car" accel="2.6" decel="4.5" sigma="0.5" length="5" minGap="2.5" maxSpeed="13.89" guiShape="passenger"/>
    <vType id="bus" accel="1.5" decel="3.0" sigma="0.5" length="12" minGap="3" maxSpeed="11.11" guiShape="bus"/>

    <vehicle id="veh0" type="car" depart="38">
        <route edges="111509189#1 111509189#2 -656173035#4 -656173035#3 -656173035#2 -656173035#1 -656173035#0 656173039#0 656173039#1 656173039#2 656173043 1126475662#0 1126475662#1 -647944442 -111508766#10 -111508766#9 -111508766#8 -111508766#7 -111508766#6 -111508766#5 -111508766#4 -111508766#3 111508759#0 -111509188#6 -111509188#5 -111509188#4 -111509188#3 -111509188#2 -111509188#1 -111509188#0 27553223#11 27553223#12 27553223#13 27553223#14 27553223#15 27553223#16 27553223#17 27553223#18 27553223#19 27553223#20 27553223#21 27553223#22 27553223#23 27553223#24 52155576#0 52155576#1 52155576#2 52155576#3 52155576#4 52155576#5 52155576#6 52155576#7 52155576#8 -1198952554#6 1178017066 -103082327#2 -103082327#1 101972908#1 -101972897#0 -1087118361#6 -1087118361#5 101972955#0 101972955#1 -103212689 101972876#1 101972876#2 -101972889 -104043544#7 1199688354#0 1199688354#1 101972886#0 -103212681#1 103212682#1 103212682#2 1126633511#8 103230598#0 103230598#1 103230598#2 -52152298#7 -52152298#6 103230617#0 103230617#1 103230617#2 103230617#3 1236569390 1236569391#0 1236569391#1 103230544#0 103230544#1 103477631#0 103477631#1 -103477657#0 1287998020 1124385971#8 -103477627 -103594716#23 -103594716#22 -103594716#21 -103594716#20 -103594716#19 -103594716#18 -103594716#17 -103594716#16 -103594716#15 -103594716#14 -103594716#13 -103594716#12 -103594716#11 -103594716#10 -103594716#9 -103594716#8 -103594716#7 -103594716#6 -103594716#5 -103594716#4 -103594716#3 -103594716#2 -103594716#1 -103594716#0 1124391474#0 1124391474#1 1124391474#2 1124391474#3 1124391493#0 1124391493#1 104227905#1 104227905#2 104227905#3 -101999555#12 104311945#0 104311945#1 104311945#2 1029381531#3 -1041323760 -105605198#2 -105605198#1 105605171 105605194#1 105605194#2 102023536#4 105605168 -105605172#2 1200751767#0 1200751767#1 105605187 -102023561#5 -102023561#4 -102023561#3 -102023561#2 -102023561#1 -102023561#0 1343388383 161977045 1343388384 116237632#5 -113752064#13 -113752064#12 -113752064#11 -113752064#10 -113752064#9 -113752064#8 -113752064#7 -113752064#6 -113752064#5 -113752064#4 -115655768#2 -115655768#1 -115655768#0 -115655796#0 115655780#3 115655780#4 -115655823#2 -115655823#1 -115655823#0 115655825#1 115655825#2 -115655822"/>
    </vehicle>
    <vehicle id="veh1" type="car" depart="39">
        <route edges="104227924#1 -104227924#1 -104227924#0 -1173581904 -104227919#4 -104227919#3 -104227919#2 1173581905 104227922#0 104227922#1 -104227913#0 1124391474#2 1124391474#3 1124391493#0 1124391493#1 1124391493#2 1127498309 1209381780 1127493386#0 1127493386#1 1127493386#2 1124391490 1124391489#0 1124391489#1 105738796#0 105738796#1 105738796#2 -105738766#0 1234203913 -105741927#5 -105741927#4 -105741927#3 -105741927#2 -105741927#1 -105741927#0 -105741941#7 -105741941#6 -105741941#5 -105741941#4 -105741941#3 -105741941#2 -105741941#1 -105741941#0 -105741953#3 -105741953#2 -105741953#1 -105741953#0 -102023538#1 105741950#0 -693306850#1 -693306850#0 -105741948#0 -105741931#1 -105741931#0 -102023578#7 1065795645#0 1065795646 105833319 -1126832790#5 -1126832790#4 -1126832790#3 -1126832790#2 -1178307367"/>
    </vehicle>
    <vehicle id="veh2" type="bus" depart="9">
        <route edges="-1173657998 101765775 103010074#1 103010074#2 103010074#3 103010074#4 103010074#5 52152279#7 52152279#8 52152279#9 52152279#10 52152279#11 1130841853 102018257#0 102018257#1 102192906#0 102192906#1 102192906#2 101750911 -102663302#5 -102663302#4 -102663302#3 -102663302#2 -102663302#1 -102663302#0 1198914347#0 1198914347#1 1198914347#2 102658956#0 102658956#1 102658956#2 102953465#0 102953465#1 102953465#2 102953465#3 52152191#4 52152191#5 52152191#6 52152191#7 102791559#0 -52152371 52097266#1 -101943152 -103230607#4 689627819 -101966443#13 -101966443#12 -101966443#11 -101966443#10 -101966443#9 -101966443#8 -101966443#7 -101966443#6 102688628#4 102688628#5 102688628#6 1132238885 103230557#0 103230557#1 103230557#2 103230557#3 103230557#4 103230557#5 103230557#6 103230557#7 -52152298#16 -52152298#15 -52152298#14 -52152298#13 -52152298#12 -52152298#11 -52152298#10 -52152298#9 -52152298#8 -103230598#2 -103230598#1 103230578#0 103230578#1 103230578#2 103230578#3 -1173862895 52087651#11 52087651#12 1226071629#0 1226071629#1 1226071629#2 1226071629#3 1226071629#4 1226071629#5 52246276#0 52246276#1 52246276#2 52246276#3 52246276#4 -103082318#7 -101972949 1421479665#6 101972934#0 101972934#1 102690993#1 -106086746 -106086740#10 -106086751#12 -111390293 106086735#1 111390286#1 111390286#2 111390286#3 -106086751#7 -106086751#6 -106086751#5 -106086733#2 -106086733#1 -106086733#0 -106086734#1 -106086725#5 -106086725#4 -106086725#3 -106086725#2 -106086725#1 -106086725#0 1195990817#8 -112075930#1 -112075930#0 112390543#4 112390543#5 112390543#6"/>
    </vehicle>
    <vehicle id="veh3" type="car" depart="14">
        <route edges="-102023554#0 1124385975#4 1124385971#0 1124385971#1 1124385971#2 1124385971#3 1124385971#4 -103477626#3 -103477626#2 -103477614#1 -103477614#0 1124385971#6 1124385971#7 1124385971#8 1124385971#9 1128136254 1126633512 52087651#0 52087651#1 52087651#2 52087651#3 -1166214529#1 -1166214529#0 -1166214530#2 -1166214530#1 -1166214530#0 103594720#2 -103594721#1 -103594721#0 -211860850#3 -103594715 -103594710#1 -103594713 -102690989#3 -103626326#2 -103626326#1"/>
    </vehicle>
    <vehicle id="veh4" type="bus" depart="39">
        <route edges="102953449#1 -102953449#1 -697065654 -697065655#0 697065656#1 -102023567#2 -102023567#1 -102023567#0 -102023558#3 -102023558#2 -102023558#1 -102023558#0 -1235109789 102945905#1 -1173645422 -102945908#1 995135255#0 995135255#1 102945907#1 -102192909#11 1309034477#1 -1309034476 -102953469#4 102953469#4"/>
    </vehicle>
    <vehicle id="veh5" type="car" depart="20">
        <route edges="135461217#1 135461217#2 135461217#3 135461217#4 647925179 1387731643 1126840650 52097821 135461212 135461199 52097752 219243639#0 219243639#1 219243639#2 219243639#3 219243639#4 1131090548#0 27553135#1 1252704829#0 1252704829#1 1252704829#2 1126475660 1124089268 1124089269 1124089270 1124089271 1124089272#0 1124089272#1 1124089273 1124089274 1124089275#0 -1288011206 101972924#0 101972924#1 101972924#2 101972924#3 101972924#4 101972924#5 -1087118361#1 -1087118361#0 1132238886 -52152298#16 -52152298#15 -52152298#14 -52152298#13 -52152298#12 103230590 -103230562#4 -103230523#4 -103230523#3 -103230523#2 -103230523#1 1173862460"/>
    </vehicle>
    <vehicle id="veh6" type="car" depart="90">
        <route edges="-562638719#11 -562638719#10 -562638719#9 -562638719#8 -562638719#7 -562638719#6 -562638719#5 -562638719#4 -562638719#3 -562638719#2 -562638719#1 -562638719#0 -102192896#10 -102192896#9 -102192896#8 -102192896#7 -102192896#6 -102192896#5 -102192896#4 -102192896#3 -102192896#2 -102192896#1 -102192896#0 -102961705#2 -102961705#1 -102961705#0 563179861#2 696897745 52152220#0 101757291#0 101757291#1 102791562#0 102791562#1 102961717#0 102961717#1 102961717#2 102961717#3 -1147855373#1 -1147855373#0 101757302#1 101757302#2 563022376#1 1387728842#0 1387728842#1 102691001#0 102691001#1 1124102312 1196283316 52155745#0 52155745#1 52155745#2 1198952555#0 1198952555#1 1198952555#2 1198952555#3 102688627#0 102688627#1 102688627#2 102688627#3 102688627#4 102688627#5 1251129389 1198952554#0 1198952554#1 1198952554#2 1198952554#3 1198952554#4 1198952554#5 1198952554#6 1198952554#7 1198952554#8 1198952554#9 1198952554#10 1124089277#0 1124089277#1 1124089276 52085868#0 52085868#1 52085868#2 1173960383 1231300662#0 -111382960"/>
    </vehicle>
    <vehicle id="veh7" type="car" depart="73">
        <route edges="-101750899#2 -1173663304 -102018300#1 -102018300#0 102192908#2 102192908#3 102192906#4 102192906#5 102192906#6 102192906#7 102192906#8 52152282#0 52152282#1 52152282#2 52152282#3 52152282#4 52152282#5 102953476#0 102658956#1 102658956#2 102953465#0 102953465#1 102953465#2 102953465#3 52152191#4 52152191#5 52152191#6 52152191#7 102791559#0 -52152371 52097266#1 -101943152 -103230607#4 689627819 -101966443#13 -101966443#12 -101966443#11 -101966443#10 -101966443#9 -101966443#8 -101966443#7 -101966443#6 102688628#4 102688628#5 102688628#6 1132238885 103230557#0 103230557#1 103230557#2 103230557#3 103230557#4 103230557#5 103230557#6 103230557#7 -52152298#16 -52152298#15 -52152298#14 -52152298#13 -52152298#12 -52152298#11 -52152298#10 -52152298#9 -52152298#8 -103230598#2 -103230598#1 103230578#0 103230578#1 103230578#2 103230578#3 -1173862895 52087651#11 52087651#12 1226071629#0 1226071629#1 1226071629#2 1226071629#3 -103626314#1 -103626315#3 -103626315#2 -103626315#1 -103626315#0 -103626326#0 -1193913544#3 -1193913544#2 -1193913544#1 -1193913544#0 -101972909#3 -101972909#2 -101972909#1 -104043557 1126480702#5 -1394141739 1126704637#2 1126704637#3 1126704637#4 1193003745 1193003740 1193003739 1193003741 1193003737 1193003744#0 1193003744#1 1286161073 1392018925#0 1392018925#1 27553089#0 27553089#1 27553089#2 27553089#3 27553089#4 27553089#5 27553089#6 1218509066#0 1218509066#1 1218509066#2 113114064 113119620#5 -113114036 113114045#4 -113114032#1"/>
    </vehicle>
    <vehicle id="veh8" type="car" depart="8">
        <route edges="102945916#5 102945916#6 -102945916#6 -102945916#5 -102945916#4 -102945916#3 -102945916#2 102945914#0 102945914#1 1392909746#10 1392909746#11 1194004305 1194004307 1287633305 1174219169#0 540148484 102018200#1 102018200#2 -540148266 -102829211#0"/>
    </vehicle>
    <vehicle id="veh9" type="car" depart="70">
        <route edges="-111507350#3 111507350#3 111507350#4 111507353#4 -111507349#3 -111507349#2 -111507349#1 -27553226#7 -27553226#6 -27553226#5 -27553226#4 -27553226#3 -27553226#2 -27553226#1 -27553226#0 -1126518489#2 -1126518489#1 -1126518489#0 -52085868#2 -52085868#1 -52085868#0 -1087118361#9 -1087118361#8 -1087118361#7 -1087118361#6 -1087118361#5 -1087118361#4 -1087118361#3 -1087118361#2 -1087118361#1 -1087118361#0 1132238886 52152366#0 52152366#1 52152366#2 52152366#3 52152366#4 52152366#5 1126641019#0 1126641019#1 1126641019#2 1126641019#3 1126641019#4 1126641019#5 1126641018#0 1126641018#1 103230506#0 103230506#1 103230506#2 103230506#3 105258719#0 105258719#1 105258719#2 105258719#3 105258719#4 105258719#5 105258719#6 105258719#7 105258719#8 105258719#9 105258719#10 102945909#0 102945909#1 102945909#2 102945909#3 103593766#0 103593766#1 103593766#2 1173348713#0 1173348713#1 104227906#0 104227906#1 104227906#2 101943153#1 102015141#0 102015141#1 101999555#3 -1173579782#1 -104311963#6 104311972#0 -104311972#0"/>
    </vehicle>
    <vehicle id="veh10" type="bus" depart="78">
        <route edges="-103212700#1 101972921#0 101972921#1 52246276#2 104043501#0 104043501#1 104043501#2 -103626325#1 -103626325#0 -104043503#6 -104043503#5 -104043503#4 -104043503#3 -104043503#2 -104043503#1 -104043503#0 1126480702#2 -1342321716#1 1126704637#3 1126704637#4 1193003745 1193003740 1193003739"/>
    </vehicle>
    <vehicle id="veh11" type="car" depart="48">
        <route edges="106086740#5 106086740#6 106086740#7 106086740#8 106086740#9 106086740#10 106086746 102690993#2 102690993#3 103082303 1421479665#5 101972949 103082318#7 -52246276#4 -52246276#3 -52246276#2 -52246276#1 -52246276#0 -1226071629#5 -1226071629#4 -1226071629#3 -1226071629#2 -1226071629#1 -1226071629#0 -1285983525#2 -1285983525#1 103230527 103230578#1 103230584#0 103230584#1 103230584#2 52152298#5 103230617#0 103230617#1 103230617#2 103230617#3 1236569390 1236569391#0 1236569391#1 103230544#0 103230544#1 103477631#0 103477631#1 -103477657#0 1287998020 1124385971#8 -103477627 -103594716#23 -103594716#22 -103594716#21 -103594716#20 -103594716#19 -103594716#18 -103594716#17 -103594716#16 -103594716#15 -103594716#14 -103594716#13 -103594716#12 -103594716#11 -103594716#10 -103594716#9 -103594716#8 -103594716#7 -103594716#6 -103594716#5 -103594716#4 -103594716#3 -103594716#2 -103594716#1 -103594716#0 1124391474#0 1124391474#1 104227913#0 104227913#1 104227913#2"/>
    </vehicle>
    <vehicle id="veh12" type="car" depart="33">
        <route edges="-106086732 106086732 106086758#2 106086758#3 106086758#4 106086730#8 106086730#9 106086730#10 106086730#11 106086730#12 106086730#13 111382968 1231300661#0 1231300661#1 1173960382 -1126518489#1 -1126518489#0 -52085868#2 -52085868#1 -52085868#0 -1087118361#9 -1087118361#8 -1087118361#7 -1087118361#6 -1087118361#5 -1087118361#4 -1087118361#3 -1087118361#2 -1087118361#1 -1087118361#0 1132238886 52152366#0 52152366#1 52152366#2 52152366#3 52152366#4 52152366#5 1126641019#0 1126641019#1 1126641019#2 1126641019#3 1126641019#4 1126641019#5 239266479#0 -1288001742 102023554#0 102023554#1 102023585#1 102023541 -52097270#6 -52097270#5 -52097270#4 -52097270#3 -52097270#2 102953488 102953447#0 102953447#1 102953447#2"/>
    </vehicle>
    <vehicle id="veh13" type="bus" depart="77">
        <route edges="204142029#0 -103594712#0"/>
    </vehicle>
    <vehicle id="veh14" type="car" depart="25">
        <route edges="102023548#1 102023557#0 102023557#1 -102953447#1 -102023562#2 -102023562#1 -102023562#0 239266478#0 239266478#1 239266478#2 239266478#3 239266478#4 1126837961 1124379128#0 1124379128#1 52155433#0 52155433#1 52155433#2 -52097266#10 -52097266#9 -52097266#8 -52097266#7 -52097266#6 -52097266#5 -52097266#4 -52152369#1 103230607#3 689627819 -101966443#13 -101966443#12 -102961753#8 101966434#0 -102961707#1 -102961707#0 -102961718#2 -101966477#1 -101966477#0 -101966483#4 -101966422#1 -101966422#0 -1434291945 102961698#5 102961698#6 102961698#7 102961698#8 102690997#0 102690997#1 102690997#2 102690997#3 102690997#4 102690997#5 102691001#1 749310218 1126633510#0 1126633510#1 1126633510#2 102688631#0 102688631#1 102688631#2 102688631#3 102688631#4 102688631#5 1419352711#0 1419352711#1 135461190#0 135461190#1 135461190#2 135461190#3 52152323#0 52152323#1 52152323#2 52152323#3 52152323#4 52152323#5 -103079281#1 -103079281#0 103079242#2"/>
    </vehicle>
    <vehicle id="veh15" type="car" depart="78">
        <route edges="102953494 113313414#2"/>
    </vehicle>
    <vehicle id="veh16" type="bus" depart="72">
        <route edges="1193725444#0 -1193725444#0 -102023517 1193489363 1392909746#7 1193489366 102945913#0 102945913#1 102945913#2 102015151#6 102015151#7 102015135#7 102015135#8 102015135#9 102015198#0 102015198#1 102015198#2 101943143#0 101943143#1 101943143#2 101943143#3 101943143#4 101943143#5 -1173585818 1173585818"/>
    </vehicle>
    <vehicle id="veh17" type="car" depart="95">
        <route edges="104311947#0 -104311947#0 101999555#9 -104227913#6 -104227913#5 -104227913#4 -104227913#3 -104227913#2 -104227913#1 -104227913#0 -1124391474#1 -1124391474#0 103594716#0 103594716#1 103594716#2 103594716#3 103594716#4 103594716#5 103594716#6 103594716#7 103594716#8 103594716#9 103594716#10 103594716#11 103594716#12 103594716#13 -103477632#19 -103477632#18 -103477632#17 -103477632#16 -103477632#15 -103477632#14 -103477632#13 -103477632#12"/>
    </vehicle>
    <vehicle id="veh18" type="car" depart="58">
        <route edges="-111507350#3 111507350#3 111507350#4 111507353#4 -111507349#3 -111507349#2 -111507349#1 -27553226#7 -27553226#6 -27553226#5 -27553226#4 -27553226#3 -27553226#2 -27553226#1 -27553226#0 -1126518489#2 -1126518489#1 -1126518489#0 -52085868#2 -52085868#1 -52085868#0 -1124089276 -1124089277#1 -1124089277#0 -1198952554#10 -1198952554#9 -1198952554#8 -1198952554#7 -1198952554#6 -1198952554#5 -1198952554#4 -1198952554#3 -1198952554#2 -1198952554#1 -1198952554#0 -1251129389 -102688627#5 101966486 103050330#1 -1199457538#2 -1199457538#1 -1199457538#0 -101966381 1087118362#3 101966443#0 101966443#1 102961753#0 102961753#1 102961753#2 102961753#3 102961753#4 102961753#5 102961753#6 102961753#7 102961753#8 101966443#12 101966443#13 -689627819 103230607#4 101943152 -52097266#1 52152371 697059657 563179860#5 1277600333#0 1277600333#1 1277600333#2 1277600333#3 1173597756#0 1173597756#1 52085865#0 52085865#1 -131765651#1 -131765651#0 102663311#1 102663311#2 -101750904#4 102663310 1173662950 102663291#2 102663308#0 102663308#1 102663300"/>
    </vehicle>
    <vehicle id="veh19" type="car" depart="32">
        <route edges="-113114063#0 113114063#0 113114063#1 -113114059#1 -113114059#0 113114032#1 113114045#5 113114045#6 113114045#7 1218676335#1 113114054 113114053 1301673408 -112869545#0 -112869519#1 -112869519#0 112869535#1 112869535#2 112869535#3 112869544#2 112937255#0 112937255#1 112937255#2 112869517#5 112869517#6 -105874617#3 -105874617#2 -105874617#1 -105874617#0 112492263#0 112492263#1 1174997023 112492266"/>
    </vehicle>
    <vehicle id="veh20" type="car" depart="39">
        <route edges="104203898#1 104203928#1 104203913#1 104203913#2 104203913#3 104203913#4 104203913#5 -103594716#3 1173348715 103593784#0 103593784#1 103593784#2 103593784#3 103593784#4 103593784#5 103593784#6 103593784#7 103593784#8 103593784#9 1124391475#7 1173348713#1 104227906#0 104227906#1 104227906#2 101943153#1 101943153#2 102015135#0 102015135#1 102015135#2 102015135#3 102015135#4 102015135#5 102015135#6 102015135#7 102015135#8 102015135#9 102015135#10 102015135#11 102015145#0 102015145#1 -1130841856#2 -1130841856#1 -1130841856#0 -1130841857 1174213096 1174213095 1174197319 -1174197320 -101994124#3 -101994120#0"/>
    </vehicle>
    <vehicle id="veh21" type="car" depart="12">
        <route edges="-27553226#10 -27553226#9 -1136691854 -111524657#0 111524646#0 111524646#1 111524646#2 111524640#0 111524640#1 111524640#2 111524640#3 111524071#0 -995139936 995139937 -111524057#0"/>
    </vehicle>
    <vehicle id="veh22" type="bus" depart="9">
        <route edges="-540151533#3 -540151533#2 -540151533#1 -540151533#0 -540151532#0 -102018305#0 -1043345911 -101943176#1 -101943176#0 1124389621#0 1124389621#1 1124389621#2 101943120#0 101943120#1 101943120#2 -540148486 540139649#7 1174219172 102015151#0 -102953460#2 -102953460#1 -102953491#1 -102953472 1087118364#2 -1193489366 -101943180#1 -101943180#0 102945916#5 102945916#6 102945916#7 102945916#8 102945916#9 102945916#10 -1309273790 -102023533#3 -102023533#2 102023553#0 102023553#1 102023553#2 102023553#3 102023553#4 102023553#5 102023553#6 103568947#0 103568947#1 103568947#2 103568952#2 103568952#3 1111799486 1111799487#0 1111799487#1 1111799487#2 -102023543#8 -102023543#7 -102023543#6 -102023543#5 -103477684#5 -103477684#4 -103477684#3 -103477684#2 -103477684#1 -103477684#0 103477632#12 103477632#13 103477632#14 103477632#15 103477632#16 103477632#17 103477632#18 103477632#19 103230612#0 103230612#1 103230612#2 103230612#3 103230612#4 103230612#5 103230612#6 103230612#7 103230612#8 103230612#9 103230612#10 103230612#11 103230612#12 103230612#13 103230612#14 103230612#15 103230612#16 103230612#17 1387725161#0 1387725161#1 105738776#0 105738776#1 105738776#2 105738776#3 105738776#4 -105741953#3 -105741953#2 -105741953#1 -105741953#0 -102023538#1 105741950#0 -693306850#1 -693306850#0 -105741948#0 -105741931#1 -105741931#0 -102023578#7 1065795645#0 1065795646 105833319 -112492258#3 -105833314#0 -112492238#2 -112492238#1 -112492238#0 -1195987500 -112492266 -1174997023 -112492263#1 -112492263#0 -112869549#18 -112869549#17 -112869549#16 -112869549#15 -112869549#14 -112869549#13 -112869549#12 -112869549#11 -112869549#10 -112869549#9 -112869549#8 -112869549#7 -112869549#6 -112869549#5 -112869549#4 -112869549#3 -112869549#2 -112869549#1 -112869549#0 -1313997106#2 -112870669#1 -112870662#1 112870654#1 112870656#1 112870666#2 -112870667#1 -112869540#7 112870658#1 112870658#2"/>
    </vehicle>
    <vehicle id="veh23" type="car" depart="48">
        <route edges="1387731644 1126613582 1419352713 1126613581 135461217#0 135461217#1 135461217#2 135461217#3 135461217#4 647925179 1387731643 1126840650 52097821 135461212 219246285 1124105783 1137238824#0 1137238824#1 1137238824#2 27553246#0 -101966385#5 -101966385#4 -101966385#3 -101966385#2 -101966385#1 -101966385#0 102690982#1 102690982#2 102690982#3 102784452#3 102784452#4 102784452#5 102784452#6 102784452#7 102784452#8 1277600332#0 1277600332#1 1312946260 1312946259#0 1312946259#1 1389216080#0 1389216080#1 1389216080#2 1173597755#0 1173597755#1 101757271#0 102961764#0 102961764#1 102961764#2 102961802 101757273#5 102690990#0 102690990#1 102690990#2 -102953465#3 -102953465#2 -102953465#1 -102953465#0 -102658956#2 -102658956#1 -102658956#0 -1198914347#2 102658961#0 102658961#1 102658961#2 102658961#3"/>
    </vehicle>
    <vehicle id="veh24" type="car" depart="77">
        <route edges="52152346#1 52152346#2 1419352712 1126613573 1126641021 1126641020#0 1126641020#1 52152345#0 52152345#1 1388965579 1132238887 -705716192#1 -705716192#0 705716193#0 705716193#1 705716193#2 705716193#3 -52152347#6 -52152347#5 -52152347#4 -52152347#3 -52152347#2 -52152347#1 -52152347#0 1201599871#2 -696897745 696897744#0 52152284 743195486#1 743195485#0 743195485#1 743195485#2 743195485#3 102192902#0 52152379#1 102658966#1 102658966#2 103010069 -101750902#1 102192900#2 -102192908#2 102018300#0 102018300#1 1173663304 101750899#2 101750899#3 102658954 102192901 -61009787#7 693490018 102658957#2 101765681#0 101765681#1 101765681#2 101765681#3 101765681#4 101765681#5 101765681#6 101765681#7 101765681#8 103010074#7 103010074#8 103010074#9 52085865#15 52085865#16 52085865#17 52085865#18 52085865#19 52085865#20 52085865#21 -540134654#12 -540134654#11 -540134654#10 -540134654#9 -540134654#8 -540134654#7 540135532 -540135532"/>
    </vehicle>
    <vehicle id="veh25" type="car" depart="89">
        <route edges="50219792#3 50219792#4 1287998019 -103477626#3 -103477626#2 -103477626#1 -103477626#0 -103477635#7 -103477635#6 -103477635#5 -103477648#1 -1237249690 1178254826 103477650#0 103477650#1 -103477675#1 -103477654#1 103477668 103477684#0 103477684#1 103477684#2 103477684#3 103477684#4 103477684#5 -102023543#4 -102023543#3 -103572004#2 -103572004#1 103574980 -103585521#0 103574982#0 103574982#1 103574982#2 103574982#3 103574982#4 -102945909#10 -102945909#9"/>
    </vehicle>
    <vehicle id="veh26" type="car" depart="57">
        <route edges="-103594716#14 103594716#14 103594716#15 103594716#16 103594716#17 103594716#18 103594716#19 103594716#20 103594716#21 103594716#22 103594716#23 103594716#24 103594716#25 1128136254 1126633512 52087651#0 52087651#1 52087651#2 52087651#3 52087651#4 52087651#5 52087651#6 52152298#0 52152298#1 52152298#2 52152298#3 52152298#4 -103230584#2 -103230584#1 -103230584#0 -103230578#1 -103230527 -1285983525#0 -1126633511#8 -103212682#2 -103212682#1 103212681#1 -101972886#0 -1199688354#1 -1199688354#0 104043544#7 101972889 -101972876#2 -101972876#1 103212689 -101972955#1 -101972955#0 1087118361#5 1087118361#6 101972897#0 -101972908#1 103082327#1 103082327#2 -1178017066 1198952554#6 -52155576#8 -52155576#7 -52155576#6 -52155576#5 -52155576#4 -52155576#3 -52155576#2 -52155576#1 -52155576#0 -27553223#24 -27553223#23 -27553223#22 -27553223#21 -27553223#20 -27553223#19 -27553223#18 52155575#0 52155575#1 52155575#2 276777050#0 276777050#1 -52155529#4 -52155529#3 -52155529#2 -52155529#1 -52155529#0 1194659615#1 219177860#0 1173943728 -1173943728"/>
    </vehicle>
    <vehicle id="veh27" type="car" depart="20">
        <route edges="656669374 52152302#3"/>
    </vehicle>
    <vehicle id="veh28" type="car" depart="95">
        <route edges="540134654#4 540134654#5 -540134654#5 -540134654#4 -540134654#3 -540134654#2 -540134654#1 -540134654#0 -1174214862#6 -1174214862#5 -1174214862#4 -1174214862#3 -1174214862#2 -1174214862#1 -1174214862#0 -102015126 -102015135#14 -102015135#13 -102015135#12 -102015135#11 -102015135#10 -102015135#9 -102015135#8 -102015135#7 -102015135#6 -102015135#5 -102015135#4 -102015135#3 -102953478#3 -102953478#2 -102953478#1 -102953478#0 -102953446#3 -102953446#2 -102953446#1 -102953446#0 1309273789#2 1309273789#3 102945909#0 102945909#1 102945909#2 102945909#3 102945909#4 102945909#5 102945909#6 103568952#0 103568952#1 103568952#2 103568952#3 1111799486 1111799487#0 1111799487#1 1111799487#2 -102023543#8 -102023543#7 -102023543#6 -102023543#5 -103477684#5 -103477684#4 -103477684#3 -103477684#2 -103477684#1 -103477684#0 103477632#12 103477632#13 103477632#14 103477632#15 103477632#16 103477632#17 103477632#18 103477632#19 103230612#0 103230612#1 103230612#2 103230612#3 103230612#4 103230612#5 103230612#6 103230612#7 103230612#8 103230612#9 103230612#10 103230612#11 103230612#12 103230612#13 103230612#14 103230612#15 103230612#16 103230612#17 1387725161#0 1387725161#1 105738776#0 105738776#1 105738776#2 105738776#3 105738776#4 -105741953#3 -105741953#2 -105741953#1 -105741953#0 -102023538#1 105741950#0 -693306850#1 -693306850#0 -105741948#0 -105741931#1 -105741931#0 -102023578#7 1065795645#0 1065795646 105833319 -112492258#3 -105833314#0 -112492238#2 -112492238#1 -112492238#0 -1195987500 -112492266 -1174997023 -112492263#1 -112492263#0 -112869549#18 -112869549#17 -112869549#16 -112869549#15 -112869549#14 -112869549#13 -112869549#12 -112869549#11 -112869549#10 -112869549#9 -112869549#8 -112869549#7 -112869549#6 -112869549#5 -112869549#4 -112869549#3 -112869549#2 -112869549#1 -112869549#0 112869549#0 112869549#1"/>
    </vehicle>
    <vehicle id="veh29" type="car" depart="22">
        <route edges="111524080#0 111524080#1 111524080#2 111524080#3 -111524067#1 111524060 -27553226#1 -27553226#0 -1126518489#2 -1126518489#1 -1126518489#0 -52085868#2 -52085868#1 -52085868#0 -1087118361#9 -1199676458#1 -1199676458#0 101972940#0 101972940#1 -101972883#4 -101972883#3 -101972883#2 -101972883#1 -101972901#2 103212688#0 103212688#1 103212688#2 104043544#6 1199688354#0 1199688354#1 101972886#0 -103212681#1 103212682#1 103212682#2 1126633511#8 103230598#0 103230598#1 103230598#2 -52152298#7 -52152298#6 103230617#0 103230617#1 103230617#2 103230617#3 1236569390 1236569391#0 -1178063433 -103230534#2 -103230534#1 -103230534#0 -103230512#1 103230499 102961691#8 102961691#9 102961691#10 1126641015 1373625234 749323218#0 749323218#1 -689102809 -1226068718 50219795#0 50219795#1 50219795#2 50219795#3 50219795#4 1251109568 105741947 1251109565#0 1251109565#1 1251109565#2 1251109565#3 -105741933#2"/>
    </vehicle>
    <vehicle id="veh30" type="car" depart="80">
        <route edges="102023557#1 102953447#2 102953447#3 102192909#14 102192909#15 102192909#16 1309254612#0 1309254612#1 1309254612#2 1309254612#3 1309254612#4 1309254612#5 1309254612#6 1309254612#7 1309254612#8 105258719#6 1173636057#0 1173636057#1 103568959#0 103568959#1 103568959#2 103568959#3 -1111799487#0 -1111799486 -103572015#2 -103572015#1 -103585516#4 -103585516#3 -103585516#2 -103585516#1 -103585516#0 102945909#9 102945909#10 102945909#11 102945909#12 102945909#13 102945909#14 102945909#15 103593765#0 103593765#1 1173348714#0 1173348714#1 1173348714#2 1173348714#3 103593760 -103594716#0 1124391474#0 1124391474#1 1124391474#2 1124391474#3 1124391493#0 1124391493#1 104227905#1 104227905#2 104227905#3 -101999555#12 104311945#0 104311945#1 104311945#2 1029381531#3 -1041323760 -105605198#2 -105605198#1 105605171 105605194#1 105605194#2 102023536#4 105605168 -105605172#2 1200751767#0 1200751767#1 105605187 -102023561#5 -102023561#4 -102023561#3 -102023561#2 -102023561#1 -102023561#0 1343388383 161977045 1343388384"/>
    </vehicle>
    <vehicle id="veh31" type="car" depart="1">
        <route edges="-103477625 218988979#2"/>
    </vehicle>
    <vehicle id="veh32" type="car" depart="100">
        <route edges="102018298#2 -102018298#2 -102018298#1 -102018298#0 -1174214862#6 -1174214862#5 -1174214862#4 -1174214862#3 -1174214862#2 -1174214862#1 -1174214862#0 -102015126 -102015135#14 -102015135#13 -102015135#12 -102015135#11 -102015135#10 -102015135#9 -102015135#8 -102015135#7 -102015135#6 -102015135#5 -102015135#4 -102015135#3 -102953478#3 -102953478#2 -102953478#1 -102953478#0 -102953446#3 -102953446#2 -102953446#1 -102953446#0 1309273789#2 1309273789#3 102945909#0 102945909#1 102945909#2 102945909#3 102945909#4 102945909#5 102945909#6 103568952#0 103568952#1 103568952#2 103568952#3 1111799486 1111799487#0 1111799487#1 1111799487#2 -102023543#8 -102023543#7 -102023543#6 -102023543#5 -103477684#5 -103477684#4 -103477684#3 -103477684#2 -103477684#1 -103477684#0 103477632#12 103477654#0 103477654#1 103477675#1 -103477650#1 -103477650#0 -1178254826 1237249690 103477648#1 103477635#5 103477635#6 103477635#7 -103477628#3 -103477628#2 -103477628#1 103477628#1"/>
    </vehicle>
    <vehicle id="veh33" type="car" depart="58">
        <route edges="113114051#0 113114032#0 113114032#1 113114045#5 113114045#6 113114045#7 -1218676335#0 -112492231#5 -112492231#4 -112492231#3 -112492231#2 -112492231#1 -112492231#0 1081704484#4 -1179656550 -1179910828#2 -1179910828#1 -1179910828#0 -105878012#1 -105878012#0 106074305#0 106074305#1 -106074290#3 -106074290#2 -106074290#1 -106074326"/>
    </vehicle>
    <vehicle id="veh34" type="car" depart="28">